/*--------------------------------*- C++ -*----------------------------------*\
| =========                 |                                                 |
| \\      /  F ield         | OpenFOAM: The Open Source CFD Toolbox           |
|  \\    /   O peration     | Version:  2.1.0                                 |
|   \\  /    A nd           | Web:      www.OpenFOAM.org                      |
|    \\/     M anipulation  |                                                 |
\*---------------------------------------------------------------------------*/
FoamFile
{
    version     2.0;
    format      ascii;
    class       volScalarField;
    object      Vm;
}
// * * * * * * * * * * * * * * * * * * * * * * * * * * * * * * * * * * * * * //
dimensions      [1 2 -3 0 0 -1 0]; // Volts 

internalField   uniform 0;

boundaryField
{
     down
     {
         type            symmetryPlane;
     }

     right
     {
         type            fixedValue;
         value           uniform 0;
     }

     up
     {
         type            symmetryPlane;
     }

     left
     {
         type            zeroGradient;
     }

     cylinder
     {
         type            symmetryPlane;
     }

     defaultFaces
     {
         type            empty;
     }
}

// ************************************************************************* //
