FoamFile
{
    version     2.0;
    format      ascii;
    class       dictionary;
    location    "constant";
    object      bidomainProperties;
}
// * * * * * * * * * * * * * * * * * * * * * * * * * * * * * * * * * * * * * //
       
betam       betam [0 -1 0 0 0 0 0] 140000; // 1/m

Cm          Cm [-1 -4 4 0 0 2 0] 0.8; // F / m^2

sigmai      sigmai [-1 -3 3 0 0 2 0] ( // S / m
                0.2 0    0
                0   0.02 0
                0   0    0.02
            );
sigmae      sigmae [-1 -3 3 0 0 2 0] (
                0.2 0    0
                0   0.08 0
                0   0    0.08
            );

ODE
{
    model           fitzHughNagumo;
    epislon         0.5;
    beta            0.5;
    gamma           0.5;
}

// ************************************************************************* //
